[General]
cmdenv-express-mode = true
cmdenv-autoflush = true
cmdenv-status-frequency = 10s
num-rngs = 6

ned-path = .
network = Highway

##########################################################
#            Simulation parameters                       #
##########################################################
debug-on-errors = true
print-undisposed = true

*.playgroundSizeX = 65000m
*.playgroundSizeY = 25000m
*.playgroundSizeZ = 50m

repeat=1
sim-time-limit = 60 s

**.debug = false
**.coreDebug = false

##########################################################
# Annotation parameters                                  #
##########################################################
*.annotations.draw = false

##########################################################
# Obstacle parameters                                    #
##########################################################
*.obstacles.debug = false

##########################################################
#            WorldUtility parameters                     #
##########################################################
*.world.useTorus = false
*.world.use2D = false

##########################################################
#            TraCIScenarioManager parameters             #
##########################################################
*.manager.updateInterval = 0.01s
*.manager.host = "localhost"
*.manager.moduleType = "org.car2x.veins.modules.application.platooning.PlatoonCar"
*.manager.moduleName = "node"
*.manager.moduleDisplayString = ""
*.manager.autoShutdown = true
*.manager.margin = 25

##########################################################
#            11p specific parameters                     #
#                                                        #
#                    NIC-Settings                        #
##########################################################
*.connectionManager.sendDirect = true
*.connectionManager.maxInterfDist = 2600m
*.connectionManager.drawMaxIntfDist = false

*.**.nic.mac1609_4.useServiceChannel = false

*.**.nic.mac1609_4.txPower = 100mW
*.**.nic.mac1609_4.bitrate = 6Mbps

*.**.nic.phy80211p.sensitivity = -94dBm
*.**.nic.phy80211p.maxTXPower = 100mW
*.**.nic.phy80211p.useThermalNoise = true
*.**.nic.phy80211p.thermalNoise = -95dBm
*.**.nic.phy80211p.decider = xmldoc("config.xml")
*.**.nic.phy80211p.analogueModels = xmldoc("config.xml")
*.**.nic.phy80211p.usePropagationDelay = true

##########################################################
#                      Mobility                          #
##########################################################
*.node[*].mobility.x = 0
*.node[*].mobility.y = 0
*.node[*].mobility.z = 1.895

##########################################################
#                    Seeds and PRNGs                     #
##########################################################
seed-set = ${repetition}
**.seed = ${repetition}

*.node[*].unicast.rng-0 = 1
*.node[*].prot.rng-0 = 2
*.node[*].appl.rng-0 = 3
*.node[*].scenario.rng-0 = 4
**.traffic.rng-0 = 5

#launch config. tells Veins which SUMO configuration to run
*.manager.configFile = "./sumocfg/freeway.sumo.cfg"

##########################################################
#                   Common parameters                    #
##########################################################

**.numberOfCars = ${nCars = 8}
**.numberOfCarsPerPlatoon = ${platoonSize = 8}
**.numberOfLanes = ${nLanes = 1}

##########################################################
#                    Position helper                     #
##########################################################

*.node[*].helper_type = "PositionHelper"
*.node[*].helper.nLanes = ${nLanes}
*.node[*].helper.platoonSize = ${platoonSize}
*.node[*].helper.nCars = ${nCars}

##########################################################
#               Scenario common parameters               #
##########################################################

#controller and engine related parameters
*.node[*].scenario.caccC1 = 0.5
*.node[*].scenario.caccXi = 1
*.node[*].scenario.caccOmegaN = 0.2 Hz
*.node[*].scenario.engineTau = 0.5 s
*.node[*].scenario.ploegKp = 0.2
*.node[*].scenario.ploegKd = 0.7
*.node[*].scenario.useRealisticEngine = false
#via wireless send acceleration computed by the controller, not the actual one
*.node[*].scenario.useControllerAcceleration = true

#controllers to be tested
**.numericController = ${controller = 1, 2, 3, 4}
*.node[*].scenario.controller = ${sController = "CACC", "CONSENSUS", "FLATBED", "PLOEG" ! controller}

*.node[*].scenario.spacing = ${spacing = 10, 10, 10, 2 ! controller}m
*.node[*].scenario.headway = ${headway = 0, 0, 0, 0.288 ! controller}s
*.node[*].scenario.leaderHeadway = ${leaderHeadway = 2}s

*.node[*].scenario.usePrediction =     true
*.node[*].scenario.useRadarPredSpeed = ${radar = false, true}

##########################################################
#                      Application                       #
##########################################################

*.node[*].appl_type = "SimplePlatooningApp"
#enable statistics recording for the application
*.node[*].appl.*.scalar-recording = true
*.node[*].appl.*.vector-recording = true

##########################################################
#                Communication protocols                 #
##########################################################

*.node[*].protocol_type = "SimplePlatooningBeaconing"

#disable statistics recording for the network layer
*.node[*].prot.*.scalar-recording = false
*.node[*].prot.*.vector-recording = false
#set the beaconing interval to be 0.1s
*.node[*].prot.beaconingInterval = ${beaconInterval = 0.1}s
#access category for platooning beacons
*.node[*].prot.priority = ${priority = 4}
#packet size for platooning beacon
*.node[*].prot.packetSize = ${packetSize = 200}
#set to 0 the packet loss rate for the unicast protocol
*.node[*].unicast.packetLossRate = 0

##########################################################
#                    Traffic manager                     #
##########################################################

**.traffic_type = "PlatoonsTrafficManager"
#insert platooning vehicles at time
**.traffic.platoonInsertTime = 1 s
#insert nCars platooning vehicles
**.traffic.nCars = ${nCars}
#let platoonSize cars per platoon
**.traffic.platoonSize = ${platoonSize}
#use nLanes lanes
**.traffic.nLanes = ${nLanes}
#SUMO vtype for platooning vehicles
**.traffic.platooningVType = "vtypeauto"
#insert vehicles already at steady-state. distance depends on controller
**.traffic.platoonInsertDistance = ${spacing}m
**.traffic.platoonInsertHeadway = ${headway}s
**.traffic.platoonLeaderHeadway = ${leaderHeadway}s

#disable statistics recording for all other modules
**.scalar-recording = false
**.vector-recording = false

##########################################################
#                    Sensor parameters                   #
##########################################################

## Radar distance parameters
*.node[*].sensors[8].minValue = 0 # m
*.node[*].sensors[8].maxValue = 250 # m

##########################################################
#              Realistic Sensor parameters               #
##########################################################

[Config RealisticSensors]
## Ego GPS parameters
*.node[*].sensors[1..2].decimalDigits = 1
*.node[*].sensors[1..2].absoluteError = 1 # m

## Ego speed sensor parameters
*.node[*].sensors[3..5].decimalDigits = 2
*.node[*].sensors[3..5].absoluteError = 0.1 # m/s

## Ego acceleration sensor parameters
*.node[*].sensors[6].decimalDigits = 3
*.node[*].sensors[6].absoluteError = 0.01 # m/s^2

## Radar distance parameters
*.node[*].sensors[8].minValue = 0 # m
*.node[*].sensors[8].maxValue = 250 # m
*.node[*].sensors[8].decimalDigits = 2
*.node[*].sensors[8].absoluteError = 0.1 # m

## Radar speed parameters
*.node[*].sensors[9].minValue = -75 # m/s
*.node[*].sensors[9].maxValue = 60 # m/s
*.node[*].sensors[9].decimalDigits = 2
*.node[*].sensors[9].absoluteError = 0.1 # m/s

*.node[*].sensors[*].seed = parentIndex()

##########################################################
#                  Scenario configurations               #
##########################################################

[Config ConstantScenario]
*.node[*].scenario_type = "SimpleScenario"

*.node[*].scenario.leaderSpeed = ${leaderSpeed = 100}kmph
**.traffic.platoonInsertSpeed = ${leaderSpeed}kmph


[Config SinusoidalScenario]
*.node[*].scenario_type = "SinusoidalScenario"

*.node[*].scenario.leaderSpeed = ${leaderSpeed = 100}kmph
**.traffic.platoonInsertSpeed = ${leaderSpeed}kmph

# Make the leader accelerate and decelerate with a sinusoidal trend.
*.node[*].scenario.leaderOscillationFrequency = 0.2 Hz
*.node[*].scenario.oscillationAmplitude = 10 kmph
*.node[*].scenario.startOscillating = 5 s


[Config RandomScenario]
*.node[*].scenario_type = "RandomScenario"

*.node[*].scenario.avgSpeed = ${leaderSpeed = 100}kmph
*.node[*].scenario.maxSpeed = 150kmph
**.traffic.platoonInsertSpeed = ${leaderSpeed}kmph

*.node[*].scenario.startTime = 5s
*.node[*].scenario.accelerationProbability = 0.2
*.node[*].scenario.decelerationProbability = 0.2

*.node[*].scenario.avgAcceleration = 0.50mpsps
*.node[*].scenario.avgDeceleration = 0.75mpsps

*.node[*].scenario.minStepDuration = 0.5s
*.node[*].scenario.meanStepDuration = 2s


##########################################################
#                   Utility configurations               #
##########################################################

[Config BaseNoAttack]
output-vector-file = ${resultdir}/${configname}_${controller}_${spacing}_${headway}_${radar}_${repetition}.vec
output-scalar-file = ${resultdir}/${configname}_${controller}_${spacing}_${headway}_${radar}_${repetition}.sca

*.node[*].prot.attackStart = ${attackStart = -1}s

[Config BaseAttack]
output-vector-file = ${resultdir}/${configname}_${controller}_${spacing}_${headway}_${radar}_${repetition}.vec
output-scalar-file = ${resultdir}/${configname}_${controller}_${spacing}_${headway}_${radar}_${repetition}.sca

*.node[4].protocol_type = "InjectedBeaconing"
*.node[*].prot.attackStart = ${attackStart = 10}s

[Config NoGui]
*.manager.useGui = false

##########################################################
#                 Base Injection Attack                  #
##########################################################

[Config BasePositionInjection]
extends = BaseAttack
*.node[*].prot.positionInjectionRate = 2.5mps
*.node[*].prot.positionInjectionLimit = 50m

[Config BaseSpeedInjection]
extends = BaseAttack
# 0.5 kmh/s = 0.13889 m/s^2
*.node[*].prot.speedInjectionRate = 0.13889mpsps
*.node[*].prot.speedInjectionLimit = 10kmph

[Config BaseAccelerationInjection]
extends = BaseAttack
*.node[*].prot.accelerationInjectionRate = 0.05mpspsps
*.node[*].prot.accelerationInjectionLimit = 1mpsps

[Config BaseCoordinatedInjection]
extends = BaseAccelerationInjection
*.node[*].prot.coordinatedAttack = true

##########################################################
#               Constant Injection Attack                #
##########################################################

[Config ConstantNoAttack]
extends = ConstantScenario, BaseNoAttack
[Config ConstantPositionInjection]
extends = ConstantScenario,  BasePositionInjection
[Config ConstantSpeedInjection]
extends = ConstantScenario, BaseSpeedInjection
[Config ConstantAccelerationInjection]
extends = ConstantScenario, BaseAccelerationInjection
[Config ConstantAllInjection]
extends = ConstantPositionInjection, ConstantSpeedInjection, ConstantAccelerationInjection
[Config ConstantCoordinatedInjection]
extends = ConstantScenario, BaseCoordinatedInjection

[Config ConstantNoAttackNoGui]
extends = ConstantNoAttack, NoGui
[Config ConstantPositionInjectionNoGui]
extends = ConstantPositionInjection, NoGui
[Config ConstantSpeedInjectionNoGui]
extends = ConstantSpeedInjection, NoGui
[Config ConstantAccelerationInjectionNoGui]
extends = ConstantAccelerationInjection, NoGui
[Config ConstantAllInjectionNoGui]
extends = ConstantAllInjection, NoGui
[Config ConstantCoordinatedInjectionNoGui]
extends = ConstantCoordinatedInjection, NoGui

##########################################################
#              Sinusoidal Injection Attack               #
##########################################################

[Config SinusoidalNoAttack]
extends = SinusoidalScenario, BaseNoAttack
[Config SinusoidalPositionInjection]
extends = SinusoidalScenario,  BasePositionInjection
[Config SinusoidalSpeedInjection]
extends = SinusoidalScenario, BaseSpeedInjection
[Config SinusoidalAccelerationInjection]
extends = SinusoidalScenario, BaseAccelerationInjection
[Config SinusoidalAllInjection]
extends = SinusoidalPositionInjection, SinusoidalSpeedInjection, SinusoidalAccelerationInjection
[Config SinusoidalCoordinatedInjection]
extends = SinusoidalScenario, BaseCoordinatedInjection

[Config SinusoidalNoAttackNoGui]
extends = SinusoidalNoAttack, NoGui
[Config SinusoidalPositionInjectionNoGui]
extends = SinusoidalPositionInjection, NoGui
[Config SinusoidalSpeedInjectionNoGui]
extends = SinusoidalSpeedInjection, NoGui
[Config SinusoidalAccelerationInjectionNoGui]
extends = SinusoidalAccelerationInjection, NoGui
[Config SinusoidalAllInjectionNoGui]
extends = SinusoidalAllInjection, NoGui
[Config SinusoidalCoordinatedInjectionNoGui]
extends = SinusoidalCoordinatedInjection, NoGui

##########################################################
#               Random Injection Attack                #
##########################################################

[Config RandomNoAttack]
extends = RandomScenario, BaseNoAttack
[Config RandomPositionInjection]
extends = RandomScenario,  BasePositionInjection
[Config RandomSpeedInjection]
extends = RandomScenario, BaseSpeedInjection
[Config RandomAccelerationInjection]
extends = RandomScenario, BaseAccelerationInjection
[Config RandomAllInjection]
extends = RandomPositionInjection, RandomSpeedInjection, RandomAccelerationInjection
[Config RandomCoordinatedInjection]
extends = RandomScenario, BaseCoordinatedInjection

[Config RandomNoAttackNoGui]
extends = RandomNoAttack, NoGui
[Config RandomPositionInjectionNoGui]
extends = RandomPositionInjection, NoGui
[Config RandomSpeedInjectionNoGui]
extends = RandomSpeedInjection, NoGui
[Config RandomAccelerationInjectionNoGui]
extends = RandomAccelerationInjection, NoGui
[Config RandomAllInjectionNoGui]
extends = RandomAllInjection, NoGui
[Config RandomCoordinatedInjectionNoGui]
extends = RandomCoordinatedInjection, NoGui

